
**** 10/01/20 20:39:18 ************** PSpice Lite (Mar 2000) *****************

 ** Profile: "SCHEMATIC1-CV"  [ D:\ae\ass-SCHEMATIC1-CV.sim ] 


 ****     CIRCUIT DESCRIPTION


******************************************************************************




** Creating circuit file "ass-SCHEMATIC1-CV.sim.cir" 
** WARNING: THIS AUTOMATICALLY GENERATED FILE MAY BE OVERWRITTEN BY SUBSEQUENT SIMULATIONS

*Libraries: 
* Local Libraries :
* From [PSPICE NETLIST] section of d:\PSpice\PSpice.ini file:
.lib "nom.lib" 

*Analysis directives: 
.TRAN  0 40ms 0 
.PROBE V(*) I(*) W(*) D(*) NOISE(*) 
.INC ".\ass-SCHEMATIC1.net" 



**** INCLUDING ass-SCHEMATIC1.net ****
* source ASS
D_D3         0 N01290 Dbreak 
D_D1         N01290 N01337 Dbreak 
R_R1         0 N01337  1k  
C_C3         0 N01337  47uF  
C_C4         N01252 N01290  47uF  
V_V1         N01252 0  
+SIN 0 10 50 0 0 0

**** RESUMING ass-SCHEMATIC1-CV.sim.cir ****
.END

**** 10/01/20 20:39:18 ************** PSpice Lite (Mar 2000) *****************

 ** Profile: "SCHEMATIC1-CV"  [ D:\ae\ass-SCHEMATIC1-CV.sim ] 


 ****     Diode MODEL PARAMETERS


******************************************************************************




               Dbreak          
          IS   10.000000E-15 
          RS     .1          
         CJO  100.000000E-15 


**** 10/01/20 20:39:18 ************** PSpice Lite (Mar 2000) *****************

 ** Profile: "SCHEMATIC1-CV"  [ D:\ae\ass-SCHEMATIC1-CV.sim ] 


 ****     INITIAL TRANSIENT SOLUTION       TEMPERATURE =   27.000 DEG C


******************************************************************************



 NODE   VOLTAGE     NODE   VOLTAGE     NODE   VOLTAGE     NODE   VOLTAGE


(N01252)    0.0000 (N01290)-458.5E-21 (N01337) 113.7E-30 




    VOLTAGE SOURCE CURRENTS
    NAME         CURRENT

    V_V1         0.000E+00

    TOTAL POWER DISSIPATION   0.00E+00  WATTS



          JOB CONCLUDED

          TOTAL JOB TIME             .05
