
**** 10/05/20 15:21:20 ************** PSpice Lite (Mar 2000) *****************

 ** Profile: "SCHEMATIC1-AD"  [ D:\ae\bjt-SCHEMATIC1-AD.sim ] 


 ****     CIRCUIT DESCRIPTION


******************************************************************************




** Creating circuit file "bjt-SCHEMATIC1-AD.sim.cir" 
** WARNING: THIS AUTOMATICALLY GENERATED FILE MAY BE OVERWRITTEN BY SUBSEQUENT SIMULATIONS

*Libraries: 
* Local Libraries :
* From [PSPICE NETLIST] section of d:\PSpice\PSpice.ini file:
.lib "nom.lib" 

*Analysis directives: 
.DC LIN V_VCC 0 30 1 
+ LIN V_VBB 0 5 1 
.PROBE V(*) I(*) W(*) D(*) NOISE(*) 
.INC ".\bjt-SCHEMATIC1.net" 



**** INCLUDING bjt-SCHEMATIC1.net ****
* source BJT
V_VBB         N00196 0 0Vdc
R_R1         VCE N00180  1k  
Q_Q2         VCE VBE 0 Q2N2222
R_R2         N00196 VBE  100k  
V_VCC         N00180 0 0Vdc

**** RESUMING bjt-SCHEMATIC1-AD.sim.cir ****
.END

**** 10/05/20 15:21:20 ************** PSpice Lite (Mar 2000) *****************

 ** Profile: "SCHEMATIC1-AD"  [ D:\ae\bjt-SCHEMATIC1-AD.sim ] 


 ****     BJT MODEL PARAMETERS


******************************************************************************




               Q2N2222         
               NPN             
          IS   14.340000E-15 
          BF  255.9          
          NF    1            
         VAF   74.03         
         IKF     .2847       
         ISE   14.340000E-15 
          NE    1.307        
          BR    6.092        
          NR    1            
          RB   10            
          RC    1            
         CJE   22.010000E-12 
         MJE     .377        
         CJC    7.306000E-12 
         MJC     .3416       
          TF  411.100000E-12 
         XTF    3            
         VTF    1.7          
         ITF     .6          
          TR   46.910000E-09 
         XTB    1.5          
          CN    2.42         
           D     .87         



          JOB CONCLUDED

          TOTAL JOB TIME             .03
