
**** 10/12/20 14:25:06 ************** PSpice Lite (Mar 2000) *****************

 ** Profile: "SCHEMATIC1-COMMON BASE"  [ D:\ae\common base-SCHEMATIC1-COMMON BASE.sim ] 


 ****     CIRCUIT DESCRIPTION


******************************************************************************




** Creating circuit file "common base-SCHEMATIC1-COMMON BASE.sim.cir" 
** WARNING: THIS AUTOMATICALLY GENERATED FILE MAY BE OVERWRITTEN BY SUBSEQUENT SIMULATIONS

*Libraries: 
* Local Libraries :
* From [PSPICE NETLIST] section of d:\PSpice\PSpice.ini file:
.lib "nom.lib" 

*Analysis directives: 
.DC LIN VEE 0 0.5 5 
+ LIN VCC 0 15 5 
.PROBE V(*) I(*) W(*) D(*) NOISE(*) 
.INC ".\common base-SCHEMATIC1.net" 



**** INCLUDING "common base-SCHEMATIC1.net" ****
* source COMMON BASE
Q_Q2         VCB 0 VEB Q2N2222
V_V3         0 N00836 0Vdc
V_V4         N00991 N00836 0Vdc
R_R3         N00836 VEB  100K  
R_R4         VCB N00991  1k  

**** RESUMING "common base-SCHEMATIC1-COMMON BASE.sim.cir" ****
.END


ERROR -- DC device VEE is undefined