
**** 10/07/20 13:03:18 ************** PSpice Lite (Mar 2000) *****************

 ** Profile: "SCHEMATIC1-MESH"  [ D:\ae\eadtest-schematic1-mesh.sim ] 


 ****     CIRCUIT DESCRIPTION


******************************************************************************




** Creating circuit file "eadtest-schematic1-mesh.sim.cir" 
** WARNING: THIS AUTOMATICALLY GENERATED FILE MAY BE OVERWRITTEN BY SUBSEQUENT SIMULATIONS

*Libraries: 
* Local Libraries :
* From [PSPICE NETLIST] section of d:\PSpice\PSpice.ini file:
.lib "nom.lib" 

*Analysis directives: 
.PROBE V(*) I(*) W(*) D(*) NOISE(*) 
.INC ".\eadtest-SCHEMATIC1.net" 



**** INCLUDING eadtest-SCHEMATIC1.net ****
* source EADTEST
R_R12         N07911 N08238  2  
R_R13         N07969 N08238  1m  
E_E1         N07911 N07881 N07881 N07969 2
I_I3         N07969 N07881 DC 5Adc  
R_R9         N07969 N07881  4  
R_R10         N07911 N07881  2  
R_R11         N07911 N07969  6  

**** RESUMING eadtest-schematic1-mesh.sim.cir ****
.END

ERROR -- Node N07911 is floating
ERROR -- Node N08238 is floating
ERROR -- Node N07969 is floating
ERROR -- Node N07881 is floating