
**** 08/30/20 14:25:03 ************** PSpice Lite (Mar 2000) *****************

 ** Profile: "SCHEMATIC1-exp_rseries"  [ D:\ae\exp_rseries-schematic1-exp_rseries.sim ] 


 ****     CIRCUIT DESCRIPTION


******************************************************************************




** Creating circuit file "exp_rseries-schematic1-exp_rseries.sim.cir" 
** WARNING: THIS AUTOMATICALLY GENERATED FILE MAY BE OVERWRITTEN BY SUBSEQUENT SIMULATIONS

*Libraries: 
* Local Libraries :
* From [PSPICE NETLIST] section of C:\Program Files\OrcadLite\PSpice\PSpice.ini file:
.lib "nom.lib" 

*Analysis directives: 
.DC LIN V_V1 0 5 0.1 
.PROBE V(*) I(*) W(*) D(*) NOISE(*) 
.INC ".\exp_rseries-SCHEMATIC1.net" 



**** INCLUDING exp_rseries-SCHEMATIC1.net ****
* source EXP_RSERIES
R_R1         N00127 N00157  1k  
R_R2         N00157 N00184  2k  
R_R3         N00184 0  3k  
V_V1         N00127 0 10Vdc

**** RESUMING exp_rseries-schematic1-exp_rseries.sim.cir ****
.END


          JOB CONCLUDED

          TOTAL JOB TIME             .02
